tests/data/package/frozen-0.9-balanced.pio.json
{"powerio_version":"0.9.0","producer":{"tool":"powerio","version":"0.9.0"},"model_kind":"balanced","model":{"kind":"balanced","balanced_network":{"name":"stored-roundtrip","base_mva":100.0,"base_frequency":60.0,"buses":[{"id":1,"kind":"REF","vm":1.02,"va":0.0,"base_kv":345.0,"vmax":1.1,"vmin":0.9,"evhi":null,"evlo":null,"area":1,"zone":1,"name":null,"uid":"buses:0","extras":{}},{"id":2,"kind":"PQ","vm":1.0,"va":0.0,"base_kv":345.0,"vmax":"Infinity","vmin":0.9,"evhi":null,"evlo":null,"area":1,"zone":1,"name":null,"uid":"buses:1","extras":{}}],"loads":[{"bus":2,"p":40.0,"q":10.0,"voltage_model":null,"in_service":true,"uid":"loads:0","extras":{}}],"shunts":[],"branches":[{"from":1,"to":2,"r":0.01,"x":0.1,"b":0.0,"charging":null,"rate_a":0.0,"rate_b":0.0,"rate_c":0.0,"rating_sets":[],"current_ratings":null,"tap":0.0,"shift":0.0,"in_service":true,"angmin":-360.0,"angmax":360.0,"control":null,"solution":null,"uid":"branches:0","extras":{}}],"switches":[],"generators":[{"bus":1,"pg":42.0,"qg":0.0,"pmax":0.0,"pmin":0.0,"qmax":0.0,"qmin":0.0,"vg":1.0,"mbase":0.0,"in_service":true,"cost":null,"caps":{},"regulated_bus":null,"uid":"generators:0"}],"storage":[],"hvdc":[],"transformers_3w":[],"areas":[],"solver":null,"source_format":"in-memory"}},"origin":{"kind":"in_memory"},"validation":{"status":"ok","counts":{"fatal":0,"error":0,"warning":0,"info":0,"debug":0}},"summary":{"elements":{"branches":1,"buses":2,"generators":1,"hvdc":0,"loads":1,"shunts":0,"storage":0,"transformers_3w":0},"topology":{"reference_buses":["1"]},"units":{"power":"MW/MVAr","angle":"degrees","base_mva":100.0}}}